.model test NJF
+         vt0=-1.5
+         beta=3m
+         lambda=10m
+         rd=10
+         rs=10
+         cgs=4p
+         cgd=4p
+         pb=1
+         is=0
+         fc=500m
+         tcv=0
+         vtotc=3m
+         bex=0
+         betatce=-500m
+         xti=3

.model test2 NJF
+         vt0=-1.5
+         beta=3m
+         lambda=0
+         temp=0

* m_small.lib
.MODEL mmbf5484lt1 njf
+VTO=-1.44808 BETA=0.00111612 LAMBDA=0.052522 RD=92.0498
+RS=34.2404 IS=1e-14 CGS=2.34003e-11 CGD=1.9873e-12
+PB=2.68192 FC=0.5 KF=1e-20 AF=0.2

* jfet2.lib
.MODEL 2N5484 NJF(Is=.25p Alpha=1e-4 Vk=80 Vto=-1.5 Vtotc=-3m Beta=3.0m Lambda=10m Betatce=-.5 Rd=10 Rs=10 Cgs=4p Cgd=4p Kf=3e-17 mfg=Siliconix)

* jfet2.lib
.MODEL J2N5484 NJF(Beta=2.224m Betatce=-500m Rd=1 Rs=1 Lambda=2.5m Vto=-1.2 Vtotc=-2.5m Is=33.57f Isr=322.4f N=1 Nr=2 Xti=3 Alpha=311.7 Vk=243.6 Cgd=1.6p M=362.2m Pb=1 Fc=500m Cgs=2.414p Kf=1.703e-002f Af=1)

* phil_fet.lib
.MODEL  PMBF5484/PLP   NJF
+             VTO = -1.2796E+000
+            BETA = 1.71347E-003
+          LAMBDA = 1.93292E-002
+              RD = 4.41873E+000
+              RS = 4.41873E+000
+              IS = 1.25479E-016
+            CGS  = 2.25000E-012
+            CGD  = 2.34000E-012
+              PB = 1.14141E+000
+              FC = 5.00000E-001
.MODEL  2N5484/PLP   NJF
+             VTO = -1.2796E+000
+            BETA = 1.71347E-003
+          LAMBDA = 1.93292E-002
+              RD = 4.41873E+000
+              RS = 4.41873E+000
+              IS = 1.25479E-016
+            CGS  = 2.25000E-012
+            CGD  = 2.34000E-012
+              PB = 1.14141E+000
+              FC = 5.00000E-001

* Bordodynov

.MODEL J2N5484 NJF(Beta=2.224m Betatce=-500m Rd=1 Rs=1 Lambda=2.5m Vto=-1.2 Vtotc=-2.5m Is=33.57f Isr=322.4f N=1 Nr=2 Xti=3 Alpha=311.7 Vk=243.6 Cgd=1.6p M=362.2m Pb=1 Fc=500m Cgs=2.414p Kf=1.703e-002f Af=1)

.MODEL 2N5484X NJF(Is=.25p Alpha=1e-4 Vk=80 Vto=-1.5 Vtotc=-3m Beta=3.0m Lambda=10m Betatce=-.5 Rd=10 Rs=10 Cgs=4p Cgd=4p Kf=3e-17 mfg=Siliconix)
.MODEL 2n5484Y NJF(VTO=-2.2 BETA=3.84M LAMBDA=8.85M RD=21 RS=18.9 IS=6.77F PB=1 FC=.5 CGS=6P CGD=2.8P AF=1 KF=2.488E-17 MFG=Siliconix)

